34Bus/Test runs/Combination/ieee34-1_Power_elem_kVA.txt

CIRCUIT ELEMENT POWER FLOW

(Power Flow into element from indicated Bus)

Power Delivery Elements

  Bus     Phase     kW     +j   kvar         kVA         PF

ELEMENT = "Vsource.SOURCE"
SOURCEBUS     1      -618.8 +j   -108.1      628.2       0.9851
SOURCEBUS     2      -555.4 +j    -32.1      556.3       0.9983
SOURCEBUS     3      -652.9 +j    -15.2      653.1       0.9997
   TERMINAL TOTAL . -1827.1 +j   -155.3     1833.7       0.9964
SOURCEBUS     0         0.0 +j      0.0        0.0       1.0000
SOURCEBUS     0         0.0 +j      0.0        0.0       1.0000
SOURCEBUS     0         0.0 +j      0.0        0.0       1.0000
   TERMINAL TOTAL .     0.0 +j      0.0        0.0       1.0000

ELEMENT = "Transformer.SUBXF"
SOURCEBUS     1       618.8 +j    108.1      628.2       0.9851
SOURCEBUS     2       555.4 +j     32.1      556.3       0.9983
SOURCEBUS     3       652.9 +j     15.2      653.1       0.9997
SOURCEBUS     0         0.0 +j      0.0        0.0       1.0000
   TERMINAL TOTAL .  1827.1 +j    155.3     1833.7       0.9964
800           1      -684.1 +j   -122.3      695.0       0.9844
800           2      -598.4 +j    -44.4      600.1       0.9973
800           3      -544.5 +j     11.4      544.6      -0.9998
800           0         0.0 +j      0.0        0.0       1.0000
   TERMINAL TOTAL . -1827.1 +j   -155.3     1833.7       0.9964

ELEMENT = "Line.L1"
800           1       684.1 +j    122.3      695.0       0.9844
800           2       598.4 +j     44.4      600.1       0.9973
800           3       544.5 +j    -11.4      544.6      -0.9998
   TERMINAL TOTAL .  1827.1 +j    155.3     1833.7       0.9964
802           1      -682.8 +j   -122.2      693.7       0.9844
802           2      -597.6 +j    -44.3      599.3       0.9973
802           3      -543.9 +j     11.2      544.0      -0.9998
   TERMINAL TOTAL . -1824.3 +j   -155.3     1830.9       0.9964

ELEMENT = "Line.L2"
802           1       682.8 +j    122.2      693.7       0.9844
802           2       582.6 +j     36.8      583.8       0.9980
802           3       531.4 +j    -18.2      531.7      -0.9994
   TERMINAL TOTAL .  1796.8 +j    140.8     1802.3       0.9969
806           1      -682.0 +j   -122.1      692.8       0.9844
806           2      -582.1 +j    -36.8      583.3       0.9980
806           3      -531.0 +j     18.0      531.3      -0.9994
   TERMINAL TOTAL . -1795.0 +j   -140.8     1800.5       0.9969

ELEMENT = "Line.L3"
806           1       682.0 +j    122.1      692.8       0.9844
806           2       567.1 +j     29.3      567.9       0.9987
806           3       518.5 +j    -25.0      519.1      -0.9988
   TERMINAL TOTAL .  1767.5 +j    126.3     1772.0       0.9975
808           1      -665.4 +j   -119.8      676.1       0.9842
808           2      -558.5 +j    -29.3      559.2       0.9986
808           3      -511.1 +j     22.2      511.6      -0.9991
   TERMINAL TOTAL . -1734.9 +j   -126.9     1739.6       0.9973

ELEMENT = "Line.L4"
808           2         8.3 +j      3.2        8.9       0.9309
   TERMINAL TOTAL .     8.3 +j      3.2        8.9       0.9309
810           2        -8.3 +j     -4.3        9.3       0.8885
   TERMINAL TOTAL .    -8.3 +j     -4.3        9.3       0.8885

ELEMENT = "Line.L5"
808           1       665.4 +j    119.8      676.1       0.9842
808           2       541.9 +j     21.8      542.4       0.9992
808           3       511.1 +j    -22.2      511.6      -0.9991
   TERMINAL TOTAL .  1718.4 +j    119.4     1722.6       0.9976
812           1      -646.1 +j   -116.3      656.5       0.9842
812           2      -532.7 +j    -22.1      533.1       0.9991
812           3      -502.3 +j     19.2      502.6      -0.9993
   TERMINAL TOTAL . -1681.1 +j   -119.3     1685.3       0.9975

ELEMENT = "Line.L6"
812           1       646.1 +j    116.3      656.5       0.9842
812           2       532.7 +j     22.1      533.1       0.9991
812           3       502.3 +j    -19.2      502.6      -0.9993
   TERMINAL TOTAL .  1681.1 +j    119.3     1685.3       0.9975
814           1      -630.7 +j   -113.1      640.8       0.9843
814           2      -525.4 +j    -22.2      525.9       0.9991
814           3      -495.2 +j     17.0      495.5      -0.9994
   TERMINAL TOTAL . -1651.4 +j   -118.3     1655.6       0.9974

ELEMENT = "Line.L7"
814R          1       630.6 +j    112.8      640.6       0.9844
814R          2       525.4 +j     22.1      525.8       0.9991
814R          3       495.2 +j    -17.1      495.5      -0.9994
   TERMINAL TOTAL .  1651.2 +j    117.8     1655.4       0.9975
850           1      -630.6 +j   -112.8      640.6       0.9844
850           2      -525.4 +j    -22.1      525.8       0.9991
850           3      -495.2 +j     17.1      495.5      -0.9994
   TERMINAL TOTAL . -1651.2 +j   -117.8     1655.4       0.9975

ELEMENT = "Line.L8"
816           1       173.6 +j     78.7      190.6       0.9107
   TERMINAL TOTAL .   173.6 +j     78.7      190.6       0.9107
818           1      -173.5 +j    -78.9      190.6       0.9102
   TERMINAL TOTAL .  -173.5 +j    -78.9      190.6       0.9102

ELEMENT = "Line.L9"
816           1       456.8 +j     34.1      458.1       0.9972
816           2       523.7 +j     22.3      524.2       0.9991
816           3       494.1 +j    -18.3      494.5      -0.9993
   TERMINAL TOTAL .  1474.6 +j     38.1     1475.1       0.9997
824           1      -453.6 +j    -35.5      455.0       0.9970
824           2      -519.2 +j    -22.5      519.7       0.9991
824           3      -490.7 +j     18.1      491.0      -0.9993
   TERMINAL TOTAL . -1463.5 +j    -39.8     1464.1       0.9996

ELEMENT = "Line.L10"
818           1       155.7 +j     70.1      170.7       0.9119
   TERMINAL TOTAL .   155.7 +j     70.1      170.7       0.9119
820           1      -152.2 +j    -76.3      170.2       0.8939
   TERMINAL TOTAL .  -152.2 +j    -76.3      170.2       0.8939

ELEMENT = "Line.L11"
820           1        67.7 +j     32.8       75.2       0.8997
   TERMINAL TOTAL .    67.7 +j     32.8       75.2       0.8997
822           1       -67.5 +j    -35.0       76.0       0.8878
   TERMINAL TOTAL .   -67.5 +j    -35.0       76.0       0.8878

ELEMENT = "Line.L12"
824           2        20.3 +j      9.6       22.5       0.9034
   TERMINAL TOTAL .    20.3 +j      9.6       22.5       0.9034
826           2       -20.3 +j    -10.1       22.7       0.8944
   TERMINAL TOTAL .   -20.3 +j    -10.1       22.7       0.8944

ELEMENT = "Line.L13"
824           1       453.6 +j     35.5      455.0       0.9970
824           2       477.1 +j      2.9      477.1       1.0000
824           3       487.7 +j    -20.3      488.2      -0.9991
   TERMINAL TOTAL .  1418.4 +j     18.1     1418.6       0.9999
828           1      -453.3 +j    -35.6      454.7       0.9969
828           2      -476.8 +j     -3.0      476.8       1.0000
828           3      -487.4 +j     20.3      487.9      -0.9991
   TERMINAL TOTAL . -1417.6 +j    -18.2     1417.7       0.9999

ELEMENT = "Line.L14"
828           1       449.8 +j     34.1      451.1       0.9971
828           2       476.8 +j      3.0      476.8       1.0000
828           3       485.4 +j    -21.3      485.9      -0.9990
   TERMINAL TOTAL .  1412.1 +j     15.7     1412.2       0.9999
830           1      -443.6 +j    -36.5      445.1       0.9966
830           2      -469.4 +j     -4.0      469.4       1.0000
830           3      -478.5 +j     20.8      479.0      -0.9991
   TERMINAL TOTAL . -1391.5 +j    -19.8     1391.6       0.9999

ELEMENT = "Line.L15"
830           1       428.8 +j     26.7      429.7       0.9981
830           2       462.4 +j      0.6      462.4       1.0000
830           3       465.4 +j    -23.0      465.9      -0.9988
   TERMINAL TOTAL .  1356.6 +j      4.3     1356.6       1.0000
854           1      -428.7 +j    -26.8      429.5       0.9981
854           2      -462.2 +j     -0.6      462.2       1.0000
854           3      -465.2 +j     23.0      465.8      -0.9988
   TERMINAL TOTAL . -1356.1 +j     -4.4     1356.1       1.0000

ELEMENT = "Line.L16"
832           1       308.6 +j    -28.0      309.9      -0.9959
832           2       337.0 +j    -53.2      341.1      -0.9878
832           3       345.6 +j    -80.0      354.7      -0.9743
   TERMINAL TOTAL .   991.1 +j   -161.1     1004.1      -0.9870
858           1      -308.0 +j     26.9      309.2      -0.9962
858           2      -336.0 +j     52.4      340.1      -0.9881
858           3      -344.8 +j     79.3      353.8      -0.9745
   TERMINAL TOTAL .  -988.7 +j    158.6     1001.4      -0.9874

ELEMENT = "Line.L17"
834           1       102.3 +j     76.8      128.0       0.7998
834           2       106.7 +j     65.6      125.2       0.8518
834           3       109.6 +j     43.2      117.8       0.9303
   TERMINAL TOTAL .   318.6 +j    185.6      368.8       0.8641
860           1      -102.3 +j    -77.3      128.2       0.7978
860           2      -106.6 +j    -66.1      125.4       0.8499
860           3      -109.6 +j    -43.7      118.0       0.9290
   TERMINAL TOTAL .  -318.5 +j   -187.1      369.4       0.8623

ELEMENT = "Line.L18"
834           1       169.4 +j   -142.3      221.2      -0.7657
834           2       207.0 +j   -122.5      240.6      -0.8606
834           3       177.9 +j   -133.6      222.5      -0.7997
   TERMINAL TOTAL .   554.4 +j   -398.4      682.7      -0.8121
842           1      -169.4 +j    142.2      221.2      -0.7658
842           2      -207.0 +j    122.5      240.5      -0.8607
842           3      -177.9 +j    133.5      222.4      -0.7998
   TERMINAL TOTAL .  -554.3 +j    398.2      682.5      -0.8121

ELEMENT = "Line.L19"
836           1        15.8 +j      7.1       17.3       0.9128
836           2        20.3 +j     11.8       23.5       0.8649
836           3        13.6 +j     13.4       19.1       0.7120
   TERMINAL TOTAL .    49.7 +j     32.2       59.2       0.8388
840           1       -15.8 +j     -7.3       17.4       0.9080
840           2       -20.3 +j    -12.0       23.6       0.8607
840           3       -13.6 +j    -13.6       19.2       0.7072
   TERMINAL TOTAL .   -49.7 +j    -32.9       59.6       0.8339

ELEMENT = "Line.L20"
836           1        -0.0 +j     -0.1        0.1       0.0650
836           2        28.0 +j     13.0       30.9       0.9065
836           3        -0.0 +j     -0.1        0.1       0.0559
   TERMINAL TOTAL .    28.0 +j     12.9       30.8       0.9082
862           1        -0.0 +j     -0.0        0.0       0.5631
862           2       -28.0 +j    -13.1       30.9       0.9056
862           3        -0.0 +j     -0.0        0.0       0.9778
   TERMINAL TOTAL .   -28.0 +j    -13.1       30.9       0.9056

ELEMENT = "Line.L21"
842           1       164.9 +j   -144.7      219.4      -0.7515
842           2       207.0 +j   -122.5      240.5      -0.8607
842           3       177.9 +j   -133.5      222.4      -0.7998
   TERMINAL TOTAL .   549.8 +j   -400.7      680.3      -0.8081
844           1      -164.8 +j    144.4      219.1      -0.7521
844           2      -206.8 +j    122.2      240.2      -0.8610
844           3      -177.8 +j    133.3      222.2      -0.8002
   TERMINAL TOTAL .  -549.5 +j    399.9      679.6      -0.8086

ELEMENT = "Line.L22"
844           1        14.0 +j   -152.3      153.0      -0.0917
844           2        49.8 +j   -133.5      142.5      -0.3496
844           3        24.0 +j   -144.1      146.1      -0.1645
   TERMINAL TOTAL .    87.9 +j   -430.0      438.8      -0.2003
846           1       -14.0 +j    151.4      152.1      -0.0919
846           2       -49.6 +j    132.7      141.6      -0.3503
846           3       -24.0 +j    143.3      145.3      -0.1649
   TERMINAL TOTAL .   -87.6 +j    427.4      436.3      -0.2007

ELEMENT = "Line.L23"
846           1        14.0 +j   -151.4      152.1      -0.0919
846           2        25.6 +j   -144.2      146.4      -0.1749
846           3        14.0 +j   -148.8      149.5      -0.0934
   TERMINAL TOTAL .    53.6 +j   -444.4      447.6      -0.1196
848           1       -14.0 +j    151.3      151.9      -0.0919
848           2       -25.6 +j    144.0      146.3      -0.1749
848           3       -14.0 +j    148.7      149.4      -0.0934
   TERMINAL TOTAL .   -53.5 +j    444.0      447.3      -0.1196

ELEMENT = "Line.L24"
850           1       630.6 +j    112.8      640.6       0.9844
850           2       525.4 +j     22.1      525.8       0.9991
850           3       495.2 +j    -17.1      495.5      -0.9994
   TERMINAL TOTAL .  1651.2 +j    117.8     1655.4       0.9975
816           1      -630.4 +j   -112.8      640.4       0.9844
816           2      -525.3 +j    -22.1      525.7       0.9991
816           3      -495.1 +j     17.1      495.4      -0.9994
   TERMINAL TOTAL . -1650.8 +j   -117.8     1655.0       0.9975

ELEMENT = "Line.L25"
852R          1       418.1 +j     31.1      419.3       0.9972
852R          2       445.4 +j      4.3      445.5       1.0000
852R          3       453.4 +j    -22.2      453.9      -0.9988
   TERMINAL TOTAL .  1316.9 +j     13.2     1317.0       1.0000
832           1      -418.1 +j    -31.1      419.3       0.9972
832           2      -445.4 +j     -4.3      445.5       1.0000
832           3      -453.4 +j     22.2      453.9      -0.9988
   TERMINAL TOTAL . -1316.9 +j    -13.2     1317.0       1.0000

ELEMENT = "Transformer.XFM1"
832           1       108.3 +j     58.5      123.1       0.8796
832           2       108.1 +j     57.3      122.3       0.8837
832           3       106.7 +j     57.2      121.1       0.8814
832           0         0.0 +j      0.0        0.0       1.0000
   TERMINAL TOTAL .   323.1 +j    173.0      366.5       0.8816
888           1      -106.7 +j    -55.1      120.1       0.8883
888           2      -106.5 +j    -53.9      119.4       0.8924
888           3      -105.2 +j    -53.9      118.2       0.8900
888           0         0.0 +j      0.0        0.0       1.0000
   TERMINAL TOTAL .  -318.4 +j   -162.9      357.6       0.8903

ELEMENT = "Line.L26"
854           2         2.0 +j     -2.8        3.5      -0.5747
   TERMINAL TOTAL .     2.0 +j     -2.8        3.5      -0.5747
856           2        -2.0 +j     -1.0        2.2       0.8944
   TERMINAL TOTAL .    -2.0 +j     -1.0        2.2       0.8944

ELEMENT = "Line.L27"
854           1       428.7 +j     26.8      429.5       0.9981
854           2       458.2 +j      2.4      458.2       1.0000
854           3       465.2 +j    -23.0      465.8      -0.9988
   TERMINAL TOTAL .  1352.1 +j      6.3     1352.1       1.0000
852           1      -418.2 +j    -31.2      419.3       0.9972
852           2      -445.5 +j     -4.4      445.5       1.0000
852           3      -453.4 +j     22.1      453.9      -0.9988
   TERMINAL TOTAL . -1317.1 +j    -13.5     1317.1       0.9999

ELEMENT = "Line.L28"
858           1         0.7 +j      0.1        0.7       0.9966
   TERMINAL TOTAL .     0.7 +j      0.1        0.7       0.9966
864           1        -0.7 +j     -0.4        0.8       0.8944
   TERMINAL TOTAL .    -0.7 +j     -0.4        0.8       0.8944

ELEMENT = "Line.L29"
858           1       302.2 +j    -31.5      303.8      -0.9946
858           2       330.2 +j    -53.1      334.5      -0.9873
858           3       336.9 +j    -83.9      347.1      -0.9704
   TERMINAL TOTAL .   969.2 +j   -168.5      983.8      -0.9852
834           1      -301.5 +j     30.2      303.0      -0.9950
834           2      -329.1 +j     52.2      333.2      -0.9877
834           3      -335.9 +j     83.1      346.1      -0.9707
   TERMINAL TOTAL .  -966.5 +j    165.5      980.6      -0.9857

ELEMENT = "Line.L30"
860           1        38.8 +j     17.2       42.4       0.9144
860           2        67.8 +j     36.7       77.2       0.8794
860           3        32.8 +j     21.1       39.0       0.8407
   TERMINAL TOTAL .   139.4 +j     75.0      158.3       0.8806
836           1       -38.8 +j    -17.9       42.7       0.9083
836           2       -67.7 +j    -37.4       77.4       0.8755
836           3       -32.9 +j    -21.8       39.4       0.8338
   TERMINAL TOTAL .  -139.4 +j    -77.0      159.3       0.8753

ELEMENT = "Line.L31"
862           2        14.0 +j      6.1       15.3       0.9164
   TERMINAL TOTAL .    14.0 +j      6.1       15.3       0.9164
838           2       -14.0 +j     -7.0       15.7       0.8944
   TERMINAL TOTAL .   -14.0 +j     -7.0       15.7       0.8944

ELEMENT = "Line.L32"
888           1       106.7 +j     55.1      120.1       0.8883
888           2       106.5 +j     53.9      119.4       0.8924
888           3       105.2 +j     53.9      118.2       0.8900
   TERMINAL TOTAL .   318.4 +j    162.9      357.6       0.8903
890           1      -101.0 +j    -51.4      113.3       0.8912
890           2      -101.7 +j    -49.9      113.3       0.8977
890           3       -99.7 +j    -49.9      111.5       0.8944
   TERMINAL TOTAL .  -302.3 +j   -151.2      338.0       0.8944

ELEMENT = "Capacitor.C844"
844           1         0.0 +j   -108.4      108.4       1.0000
844           2         0.0 +j   -107.1      107.1       1.0000
844           3        -0.0 +j   -106.5      106.5       0.0000
   TERMINAL TOTAL .    -0.0 +j   -321.9      321.9       0.0000
844           0         0.0 +j      0.0        0.0       1.0000
844           0         0.0 +j      0.0        0.0       1.0000
844           0         0.0 +j      0.0        0.0       1.0000
   TERMINAL TOTAL .     0.0 +j      0.0        0.0       1.0000

ELEMENT = "Capacitor.C848"
848           1         0.0 +j   -162.7      162.7       1.0000
848           2         0.0 +j   -160.6      160.6       1.0000
848           3         0.0 +j   -159.9      159.9       1.0000
   TERMINAL TOTAL .     0.0 +j   -483.1      483.1       1.0000
848           0         0.0 +j      0.0        0.0       1.0000
848           0         0.0 +j      0.0        0.0       1.0000
848           0         0.0 +j      0.0        0.0       1.0000
   TERMINAL TOTAL .     0.0 +j      0.0        0.0       1.0000

ELEMENT = "Transformer.REG1A"
814           1       630.7 +j    113.1      640.8       0.9843
814           0         0.0 +j      0.0        0.0       1.0000
   TERMINAL TOTAL .   630.7 +j    113.1      640.8       0.9843
814R          1      -630.6 +j   -112.8      640.6       0.9844
814R          0         0.0 +j      0.0        0.0       1.0000
   TERMINAL TOTAL .  -630.6 +j   -112.8      640.6       0.9844

ELEMENT = "Transformer.REG1B"
814           2       525.4 +j     22.2      525.9       0.9991
814           0         0.0 +j      0.0        0.0       1.0000
   TERMINAL TOTAL .   525.4 +j     22.2      525.9       0.9991
814R          2      -525.4 +j    -22.1      525.8       0.9991
814R          0         0.0 +j      0.0        0.0       1.0000
   TERMINAL TOTAL .  -525.4 +j    -22.1      525.8       0.9991

ELEMENT = "Transformer.REG1C"
814           3       495.2 +j    -17.0      495.5      -0.9994
814           0         0.0 +j      0.0        0.0       1.0000
   TERMINAL TOTAL .   495.2 +j    -17.0      495.5      -0.9994
814R          3      -495.2 +j     17.1      495.5      -0.9994
814R          0         0.0 +j      0.0        0.0       1.0000
   TERMINAL TOTAL .  -495.2 +j     17.1      495.5      -0.9994

ELEMENT = "Transformer.REG2A"
852           1       418.2 +j     31.2      419.3       0.9972
852           0         0.0 +j      0.0        0.0       1.0000
   TERMINAL TOTAL .   418.2 +j     31.2      419.3       0.9972
852R          1      -418.1 +j    -31.1      419.3       0.9972
852R          0         0.0 +j      0.0        0.0       1.0000
   TERMINAL TOTAL .  -418.1 +j    -31.1      419.3       0.9972

ELEMENT = "Transformer.REG2B"
852           2       445.5 +j      4.4      445.5       1.0000
852           0         0.0 +j      0.0        0.0       1.0000
   TERMINAL TOTAL .   445.5 +j      4.4      445.5       1.0000
852R          2      -445.4 +j     -4.3      445.5       1.0000
852R          0         0.0 +j      0.0        0.0       1.0000
   TERMINAL TOTAL .  -445.4 +j     -4.3      445.5       1.0000

ELEMENT = "Transformer.REG2C"
852           3       453.4 +j    -22.1      453.9      -0.9988
852           0         0.0 +j      0.0        0.0       1.0000
   TERMINAL TOTAL .   453.4 +j    -22.1      453.9      -0.9988
852R          3      -453.4 +j     22.2      453.9      -0.9988
852R          0         0.0 +j      0.0        0.0       1.0000
   TERMINAL TOTAL .  -453.4 +j     22.2      453.9      -0.9988

= = = = = = = = = = = = = = = = = = =  = = = = = = = = = = =  = =

Power Conversion Elements

  Bus     Phase     kW   +j  kvar         kVA         PF

ELEMENT = "Load.S860"
860           1      20.0 +j   17.3       26.5       0.7557
860           2      20.0 +j   17.1       26.3       0.7596
860           3      20.0 +j   17.0       26.3       0.7612
860           0       0.0 +j    0.0        0.0       1.0000
  TERMINAL TOTAL  .    60.0 +j     51.5       79.1       0.7588

ELEMENT = "Load.S840"
840           1       9.7 +j    7.6       12.3       0.7894
840           2       9.6 +j    7.5       12.2       0.7894
840           3       9.6 +j    7.5       12.1       0.7894
840           0       0.0 +j    0.0        0.0       1.0000
  TERMINAL TOTAL  .    29.0 +j     22.5       36.7       0.7894

ELEMENT = "Load.S844"
844           1     146.3 +j  113.8      185.3       0.7894
844           2     144.5 +j  112.4      183.1       0.7894
844           3     143.8 +j  111.8      182.2       0.7894
844           0       0.0 +j    0.0        0.0       1.0000
  TERMINAL TOTAL  .   434.6 +j    338.0      550.6       0.7894

ELEMENT = "Load.S848"
848           1      14.0 +j   11.4       18.0       0.7750
848           2      14.1 +j   11.1       17.9       0.7864
848           3      14.0 +j   11.2       17.9       0.7812
  TERMINAL TOTAL  .    42.0 +j     33.6       53.8       0.7809

ELEMENT = "Load.S830A"
830           1       4.5 +j   -0.2        4.5      -0.9985
830           2       2.5 +j    3.8        4.5       0.5556
  TERMINAL TOTAL  .     7.0 +j      3.5        7.9       0.8944

ELEMENT = "Load.S830B"
830           2       4.5 +j   -0.3        4.5      -0.9979
830           3       2.4 +j    3.8        4.5       0.5455
  TERMINAL TOTAL  .     6.9 +j      3.5        7.7       0.8944

ELEMENT = "Load.S830C"
830           3      10.7 +j   -1.6       10.8      -0.9896
830           1       6.7 +j    8.5       10.9       0.6191
  TERMINAL TOTAL  .    17.4 +j      7.0       18.8       0.9285

ELEMENT = "Load.S890"
890           1     101.0 +j   51.4      113.3       0.8912
890           2     101.7 +j   49.9      113.3       0.8977
890           3      99.7 +j   49.9      111.5       0.8944
  TERMINAL TOTAL  .   302.3 +j    151.2      338.0       0.8944

ELEMENT = "Load.D858_864SB"
858           1       0.7 +j    0.4        0.8       0.8944
858           0       0.0 +j    0.0        0.0       1.0000
  TERMINAL TOTAL  .     0.7 +j      0.4        0.8       0.8944

ELEMENT = "Load.D858_864RB"
864           1       0.7 +j    0.3        0.8       0.8944
864           0       0.0 +j    0.0        0.0       1.0000
  TERMINAL TOTAL  .     0.7 +j      0.3        0.8       0.8944

ELEMENT = "Load.D858_834SA"
858           1       0.9 +j   -0.0        0.9      -0.9988
858           2       0.5 +j    0.7        0.9       0.5569
  TERMINAL TOTAL  .     1.4 +j      0.7        1.6       0.8944

ELEMENT = "Load.D858_834RA"
834           1       0.9 +j   -0.0        0.9      -0.9988
834           2       0.5 +j    0.7        0.9       0.5571
  TERMINAL TOTAL  .     1.4 +j      0.7        1.6       0.8944

ELEMENT = "Load.D842_844SA"
842           1       4.5 +j    2.5        5.1       0.8742
842           0       0.0 +j    0.0        0.0       1.0000
  TERMINAL TOTAL  .     4.5 +j      2.5        5.1       0.8742

ELEMENT = "Load.D842_844RA"
844           1       4.5 +j    2.5        5.1       0.8742
844           0       0.0 +j    0.0        0.0       1.0000
  TERMINAL TOTAL  .     4.5 +j      2.5        5.1       0.8742

ELEMENT = "Load.D844_846SB"
844           2      12.5 +j    6.0       13.9       0.9015
844           0       0.0 +j    0.0        0.0       1.0000
  TERMINAL TOTAL  .    12.5 +j      6.0       13.9       0.9015

ELEMENT = "Load.D844_846RB"
846           2      12.5 +j    6.0       13.9       0.9015
846           0       0.0 +j    0.0        0.0       1.0000
  TERMINAL TOTAL  .    12.5 +j      6.0       13.9       0.9015

ELEMENT = "Load.D844_846SC"
844           3      10.0 +j    5.5       11.4       0.8762
844           0       0.0 +j    0.0        0.0       1.0000
  TERMINAL TOTAL  .    10.0 +j      5.5       11.4       0.8762

ELEMENT = "Load.D844_846RC"
846           3      10.0 +j    5.5       11.4       0.8762
846           0       0.0 +j    0.0        0.0       1.0000
  TERMINAL TOTAL  .    10.0 +j      5.5       11.4       0.8762

ELEMENT = "Load.D846_848SB"
846           2      11.5 +j    5.5       12.7       0.9021
846           0       0.0 +j    0.0        0.0       1.0000
  TERMINAL TOTAL  .    11.5 +j      5.5       12.7       0.9021

ELEMENT = "Load.D846_848RB"
848           2      11.5 +j    5.5       12.7       0.9021
848           0       0.0 +j    0.0        0.0       1.0000
  TERMINAL TOTAL  .    11.5 +j      5.5       12.7       0.9021

ELEMENT = "Load.D802_806SB"
802           2      15.0 +j    7.5       16.8       0.8944
802           0       0.0 +j    0.0        0.0       1.0000
  TERMINAL TOTAL  .    15.0 +j      7.5       16.8       0.8944

ELEMENT = "Load.D802_806RB"
806           2      15.0 +j    7.5       16.8       0.8944
806           0       0.0 +j    0.0        0.0       1.0000
  TERMINAL TOTAL  .    15.0 +j      7.5       16.8       0.8944

ELEMENT = "Load.D802_806SC"
802           3      12.5 +j    7.0       14.3       0.8725
802           0       0.0 +j    0.0        0.0       1.0000
  TERMINAL TOTAL  .    12.5 +j      7.0       14.3       0.8725

ELEMENT = "Load.D802_806RC"
806           3      12.5 +j    7.0       14.3       0.8725
806           0       0.0 +j    0.0        0.0       1.0000
  TERMINAL TOTAL  .    12.5 +j      7.0       14.3       0.8725

ELEMENT = "Load.D808_810SB"
808           2       8.3 +j    4.3        9.3       0.8885
808           0       0.0 +j    0.0        0.0       1.0000
  TERMINAL TOTAL  .     8.3 +j      4.3        9.3       0.8885

ELEMENT = "Load.D808_810RB"
810           2       8.3 +j    4.3        9.3       0.8885
810           0       0.0 +j    0.0        0.0       1.0000
  TERMINAL TOTAL  .     8.3 +j      4.3        9.3       0.8885

ELEMENT = "Load.D818_820SA"
818           1      17.8 +j    8.9       19.9       0.8944
818           0       0.0 +j    0.0        0.0       1.0000
  TERMINAL TOTAL  .    17.8 +j      8.9       19.9       0.8944

ELEMENT = "Load.D818_820RA"
820           1      17.0 +j    8.5       19.0       0.8944
820           0       0.0 +j    0.0        0.0       1.0000
  TERMINAL TOTAL  .    17.0 +j      8.5       19.0       0.8944

ELEMENT = "Load.D820_822SA"
820           1      67.5 +j   35.0       76.0       0.8878
820           0       0.0 +j    0.0        0.0       1.0000
  TERMINAL TOTAL  .    67.5 +j     35.0       76.0       0.8878

ELEMENT = "Load.D820_822RA"
822           1      67.5 +j   35.0       76.0       0.8878
822           0       0.0 +j    0.0        0.0       1.0000
  TERMINAL TOTAL  .    67.5 +j     35.0       76.0       0.8878

ELEMENT = "Load.D816_824SB"
816           2       1.6 +j   -0.2        1.6      -0.9891
816           3       1.0 +j    1.3        1.6       0.6125
  TERMINAL TOTAL  .     2.5 +j      1.0        2.7       0.9285

ELEMENT = "Load.D816_824RB"
824           2       1.6 +j   -0.2        1.6      -0.9890
824           3       1.0 +j    1.2        1.6       0.6129
  TERMINAL TOTAL  .     2.5 +j      1.0        2.7       0.9285

ELEMENT = "Load.D828_830SA"
828           1       3.5 +j    1.5        3.8       0.9191
828           0       0.0 +j    0.0        0.0       1.0000
  TERMINAL TOTAL  .     3.5 +j      1.5        3.8       0.9191

ELEMENT = "Load.D828_830RA"
830           1       3.5 +j    1.5        3.8       0.9191
830           0       0.0 +j    0.0        0.0       1.0000
  TERMINAL TOTAL  .     3.5 +j      1.5        3.8       0.9191

ELEMENT = "Load.D854_856SB"
854           2       2.0 +j    1.0        2.2       0.8944
854           0       0.0 +j    0.0        0.0       1.0000
  TERMINAL TOTAL  .     2.0 +j      1.0        2.2       0.8944

ELEMENT = "Load.D854_856RB"
856           2       2.0 +j    1.0        2.2       0.8944
856           0       0.0 +j    0.0        0.0       1.0000
  TERMINAL TOTAL  .     2.0 +j      1.0        2.2       0.8944

ELEMENT = "Load.D832_858SA"
832           1       1.3 +j    0.5        1.4       0.9191
832           0       0.0 +j    0.0        0.0       1.0000
  TERMINAL TOTAL  .     1.3 +j      0.5        1.4       0.9191

ELEMENT = "Load.D832_858RA"
858           1       1.3 +j    0.5        1.4       0.9191
858           0       0.0 +j    0.0        0.0       1.0000
  TERMINAL TOTAL  .     1.3 +j      0.5        1.4       0.9191

ELEMENT = "Load.D832_858SB"
832           2       0.4 +j    0.2        0.4       0.8944
832           0       0.0 +j    0.0        0.0       1.0000
  TERMINAL TOTAL  .     0.4 +j      0.2        0.4       0.8944

ELEMENT = "Load.D832_858RB"
858           2       0.4 +j    0.2        0.4       0.8944
858           0       0.0 +j    0.0        0.0       1.0000
  TERMINAL TOTAL  .     0.4 +j      0.2        0.4       0.8944

ELEMENT = "Load.D832_858SC"
832           3       1.1 +j    0.5        1.2       0.8944
832           0       0.0 +j    0.0        0.0       1.0000
  TERMINAL TOTAL  .     1.1 +j      0.5        1.2       0.8944

ELEMENT = "Load.D832_858RC"
858           3       1.1 +j    0.5        1.2       0.8944
858           0       0.0 +j    0.0        0.0       1.0000
  TERMINAL TOTAL  .     1.1 +j      0.5        1.2       0.8944

ELEMENT = "Load.D824_826SB"
824           2      20.3 +j   10.1       22.7       0.8944
824           0       0.0 +j    0.0        0.0       1.0000
  TERMINAL TOTAL  .    20.3 +j     10.1       22.7       0.8944

ELEMENT = "Load.D824_826RB"
826           2      20.3 +j   10.1       22.7       0.8944
826           0       0.0 +j    0.0        0.0       1.0000
  TERMINAL TOTAL  .    20.3 +j     10.1       22.7       0.8944

ELEMENT = "Load.D824_828SC"
824           3       2.0 +j    1.0        2.2       0.8944
824           0       0.0 +j    0.0        0.0       1.0000
  TERMINAL TOTAL  .     2.0 +j      1.0        2.2       0.8944

ELEMENT = "Load.D824_828RC"
828           3       2.0 +j    1.0        2.2       0.8944
828           0       0.0 +j    0.0        0.0       1.0000
  TERMINAL TOTAL  .     2.0 +j      1.0        2.2       0.8944

ELEMENT = "Load.D834_860SA"
834           1       5.6 +j   -0.3        5.6      -0.9988
834           2       3.1 +j    4.6        5.6       0.5571
  TERMINAL TOTAL  .     8.7 +j      4.4        9.7       0.8944

ELEMENT = "Load.D834_860RA"
860           1       5.6 +j   -0.3        5.6      -0.9988
860           2       3.1 +j    4.6        5.6       0.5572
  TERMINAL TOTAL  .     8.7 +j      4.4        9.7       0.8944

ELEMENT = "Load.D834_860SB"
834           2       6.9 +j   -0.4        6.9      -0.9980
834           3       3.8 +j    5.8        6.9       0.5468
  TERMINAL TOTAL  .    10.6 +j      5.3       11.9       0.8944

ELEMENT = "Load.D834_860RB"
860           2       6.9 +j   -0.4        6.9      -0.9980
860           3       3.8 +j    5.7        6.9       0.5468
  TERMINAL TOTAL  .    10.6 +j      5.3       11.9       0.8944

ELEMENT = "Load.D834_860SC"
834           3      37.8 +j   -2.5       37.9      -0.9977
834           1      21.0 +j   31.9       38.2       0.5491
  TERMINAL TOTAL  .    58.8 +j     29.4       65.7       0.8944

ELEMENT = "Load.D834_860RC"
860           3      37.8 +j   -2.5       37.9      -0.9977
860           1      21.0 +j   31.9       38.2       0.5490
  TERMINAL TOTAL  .    58.7 +j     29.4       65.7       0.8944

ELEMENT = "Load.D860_836SA"
860           1       9.6 +j   -0.5        9.7      -0.9988
860           2       5.4 +j    8.0        9.6       0.5572
  TERMINAL TOTAL  .    15.0 +j      7.5       16.8       0.8944

ELEMENT = "Load.D860_836RA"
836           1       9.6 +j   -0.5        9.7      -0.9988
836           2       5.4 +j    8.0        9.6       0.5572
  TERMINAL TOTAL  .    15.0 +j      7.5       16.8       0.8944

ELEMENT = "Load.D860_836SB"
860           2       3.4 +j    0.0        3.4       0.9999
860           3       1.6 +j    3.0        3.4       0.4810
  TERMINAL TOTAL  .     5.0 +j      3.0        5.8       0.8575

ELEMENT = "Load.D860_836RB"
836           2       3.4 +j    0.0        3.4       0.9999
836           3       1.6 +j    3.0        3.4       0.4811
  TERMINAL TOTAL  .     5.0 +j      3.0        5.8       0.8575

ELEMENT = "Load.D860_836SC"
860           3      13.7 +j   -0.7       13.7      -0.9988
860           1       7.3 +j   11.7       13.8       0.5331
  TERMINAL TOTAL  .    21.0 +j     11.0       23.7       0.8858

ELEMENT = "Load.D860_836RC"
836           3      13.7 +j   -0.7       13.7      -0.9988
836           1       7.3 +j   11.7       13.8       0.5331
  TERMINAL TOTAL  .    21.0 +j     11.0       23.7       0.8858

ELEMENT = "Load.D836_840SA"
836           1       6.0 +j   -0.3        6.0      -0.9988
836           2       3.3 +j    5.0        6.0       0.5572
  TERMINAL TOTAL  .     9.4 +j      4.7       10.5       0.8944

ELEMENT = "Load.D836_840RA"
840           1       6.0 +j   -0.3        6.0      -0.9988
840           2       3.3 +j    5.0        6.0       0.5572
  TERMINAL TOTAL  .     9.4 +j      4.7       10.5       0.8944

ELEMENT = "Load.D836_840SB"
836           2       7.3 +j   -0.5        7.3      -0.9980
836           3       4.0 +j    6.1        7.3       0.5469
  TERMINAL TOTAL  .    11.3 +j      5.7       12.7       0.8944

ELEMENT = "Load.D836_840RB"
840           2       7.3 +j   -0.5        7.3      -0.9980
840           3       4.0 +j    6.1        7.3       0.5469
  TERMINAL TOTAL  .    11.3 +j      5.7       12.7       0.8944

ELEMENT = "Load.D858_834SB"
858           2       4.9 +j   -0.2        4.9      -0.9993
858           3       2.6 +j    4.2        4.9       0.5244
  TERMINAL TOTAL  .     7.5 +j      4.0        8.5       0.8824

ELEMENT = "Load.D858_834RB"
834           2       4.9 +j   -0.2        4.9      -0.9993
834           3       2.6 +j    4.2        4.9       0.5246
  TERMINAL TOTAL  .     7.5 +j      4.0        8.5       0.8824

ELEMENT = "Load.D858_834SC"
858           3       4.3 +j   -0.2        4.3      -0.9993
858           1       2.2 +j    3.7        4.3       0.5240
  TERMINAL TOTAL  .     6.5 +j      3.5        7.4       0.8805

ELEMENT = "Load.D858_834RC"
834           3       4.3 +j   -0.2        4.3      -0.9993
834           1       2.2 +j    3.7        4.3       0.5235
  TERMINAL TOTAL  .     6.5 +j      3.5        7.4       0.8805

ELEMENT = "Load.D862_838SB"
862           2      14.0 +j    7.0       15.7       0.8944
862           0       0.0 +j    0.0        0.0       1.0000
  TERMINAL TOTAL  .    14.0 +j      7.0       15.7       0.8944

ELEMENT = "Load.D862_838RB"
838           2      14.0 +j    7.0       15.7       0.8944
838           0       0.0 +j    0.0        0.0       1.0000
  TERMINAL TOTAL  .    14.0 +j      7.0       15.7       0.8944


Total Circuit Losses =  203.6 +j  -19.0
